***SUBCKT-DEFINITIONS***
.SUBCKT cvar#20auLvs#20PRIMLIB G B S
.ENDS
